Version 4.1
SHEET 1 1912 1068
WIRE -368 -112 -368 -144
WIRE 0 -48 -64 -48
WIRE 112 -48 64 -48
WIRE 576 -16 304 -16
WIRE -368 0 -368 -32
WIRE -64 48 -64 -48
WIRE -16 48 -64 48
WIRE 112 48 112 -48
WIRE 112 48 64 48
WIRE 448 64 432 64
WIRE 576 64 576 -16
WIRE 576 64 528 64
WIRE -592 80 -688 80
WIRE -544 80 -592 80
WIRE 304 80 304 -16
WIRE -688 112 -688 80
WIRE -544 112 -544 80
WIRE 720 128 720 112
WIRE -272 160 -288 160
WIRE -160 160 -192 160
WIRE -64 160 -64 48
WIRE -64 160 -80 160
WIRE -16 160 -64 160
WIRE 688 160 640 160
WIRE 112 176 112 48
WIRE 112 176 48 176
WIRE 176 176 112 176
WIRE 304 176 304 144
WIRE 304 176 256 176
WIRE 352 176 304 176
WIRE 432 176 432 64
WIRE 432 176 416 176
WIRE 480 176 432 176
WIRE 816 176 768 176
WIRE -16 192 -64 192
WIRE 576 192 576 64
WIRE 576 192 544 192
WIRE 688 192 576 192
WIRE -688 208 -688 192
WIRE -544 208 -544 192
WIRE -544 208 -688 208
WIRE 480 208 448 208
WIRE -688 224 -688 208
WIRE 304 224 304 176
WIRE 16 240 16 208
WIRE 512 240 512 224
WIRE 720 240 720 224
WIRE 736 240 736 224
WIRE 736 240 720 240
WIRE 720 256 720 240
WIRE -64 272 -64 192
WIRE 304 336 304 304
WIRE 448 336 448 208
WIRE 448 336 304 336
WIRE 640 336 640 160
WIRE 640 336 448 336
WIRE 304 368 304 336
FLAG 16 144 3v3
FLAG 16 240 0
FLAG -64 272 0
FLAG -288 160 0
FLAG 816 176 V_comp
FLAG -688 224 0
FLAG -592 80 V_ref
FLAG 720 112 3v3
FLAG 720 256 0
FLAG 512 160 3v3
FLAG 512 240 0
FLAG 304 448 0
FLAG -368 0 0
FLAG -368 -144 3v3
SYMBOL res 80 32 R90
WINDOW 0 0 56 VBottom 2
WINDOW 3 32 56 VTop 2
SYMATTR InstName R1
SYMATTR Value 700k
SYMBOL cap 64 -64 R90
WINDOW 0 0 32 VBottom 2
WINDOW 3 32 32 VTop 2
SYMATTR InstName C1
SYMATTR Value 2p
SYMBOL res -64 144 R90
WINDOW 0 0 56 VBottom 2
WINDOW 3 32 56 VTop 2
SYMATTR InstName R2
SYMATTR Value 1µ
SYMBOL current -192 160 R90
WINDOW 0 -32 40 VBottom 2
WINDOW 3 -374 -552 VTop 2
WINDOW 123 60 40 VTop 2
WINDOW 39 0 0 Left 0
SYMATTR InstName I1
SYMATTR Value PWL file="C:\Users\João Pedro\Desktop\Modulador\testegenerate_1k.txt"
SYMATTR Value2 AC 1
SYMBOL OpAmps\\UniversalOpAmp1 16 176 R0
SYMATTR InstName U1
SYMBOL voltage -688 96 R0
WINDOW 123 0 0 Left 0
WINDOW 39 0 0 Left 0
SYMATTR InstName V3
SYMATTR Value SINE(1.65 1.65 50k)
SYMBOL res -560 96 R0
SYMATTR InstName R5
SYMATTR Value 1
SYMBOL res 272 160 R90
WINDOW 0 0 56 VBottom 2
WINDOW 3 32 56 VTop 2
SYMATTR InstName R7
SYMATTR Value 4.7k
SYMBOL res 320 320 R180
WINDOW 0 -49 48 Left 2
WINDOW 3 41 53 Left 2
SYMATTR InstName R8
SYMATTR Value 8.2k
SYMBOL cap 288 80 R0
WINDOW 0 26 9 Left 2
WINDOW 3 26 51 Left 2
SYMATTR InstName C4
SYMATTR Value 68p
SYMBOL cap 416 160 R90
WINDOW 0 0 32 VBottom 2
WINDOW 3 32 32 VTop 2
SYMATTR InstName C5
SYMATTR Value 0.01µ
SYMBOL res 544 48 R90
WINDOW 0 0 56 VBottom 2
WINDOW 3 32 56 VTop 2
SYMATTR InstName R9
SYMATTR Value 4.7k
SYMBOL OpAmps\\UniversalOpAmp1 512 192 R0
SYMATTR InstName U6
SYMBOL Comparators\\LT1015 720 176 R0
SYMATTR InstName U5
SYMBOL voltage 304 352 R0
WINDOW 123 0 0 Left 0
WINDOW 39 0 0 Left 0
SYMATTR InstName V2
SYMATTR Value 1.65
SYMBOL voltage -368 -128 R0
WINDOW 123 0 0 Left 0
WINDOW 39 0 0 Left 0
SYMATTR InstName V1
SYMATTR Value 3.3
TEXT -800 472 Left 2 !.tran 0 0.002 0 1u
